EVs_20kW/Output_EVs_20kW_3ph/output_voltage_566.csv
# Output_EVs_20kW_3ph\output_voltage_566.csv run at 2000-01-01 09:26:00 EST on 963 nodes
node_name,voltA_mag,voltA_angle,voltB_mag,voltB_angle,voltC_mag,voltC_angle
SourceBus,6668.395609,0.000000,6668.395609,4.188790,6668.395609,2.094395
Bus1,250.392735,-0.545388,248.404447,3.647310,250.266723,1.558073
Bus2,249.332006,-0.544266,247.267559,3.647153,250.067691,1.558160
Bus3,249.220822,-0.544148,247.148372,3.647136,250.046826,1.558169
Bus4,249.116663,-0.544037,247.036713,3.647121,250.027278,1.558178
Bus5,249.025854,-0.543940,246.939363,3.647107,250.010235,1.558185
Bus6,248.882798,-0.543788,246.785997,3.647086,249.983386,1.558197
Bus7,239.155537,-0.532976,236.342792,3.645565,248.155160,1.559005
Bus8,238.720550,-0.532471,235.875070,3.645494,248.073280,1.559042
Bus9,238.358549,-0.532049,235.485777,3.645434,248.005130,1.559072
Bus10,238.040898,-0.531678,235.144143,3.645382,247.945324,1.559099
Bus11,237.803893,-0.531401,234.889219,3.645342,247.900697,1.559119
Bus12,237.581420,-0.531140,234.649909,3.645305,247.858803,1.559137
Bus13,237.444627,-0.530979,234.502755,3.645283,247.833043,1.559149
Bus14,237.104101,-0.530578,234.136409,3.645226,247.768910,1.559178
Bus15,234.346980,-0.527287,231.168723,3.644760,247.249391,1.559410
Bus16,234.346980,-0.527287,231.168723,3.644760,247.249391,1.559410
Bus17,231.006996,-0.523190,227.569966,3.644179,246.619403,1.559694
Bus18,234.346980,-0.527287,231.168723,3.644760,247.249391,1.559410
Bus19,230.777330,-0.522904,227.322352,3.644139,246.576057,1.559713
Bus20,234.346980,-0.527287,231.168723,3.644760,247.249391,1.559410
Bus21,230.519464,-0.522582,227.044312,3.644093,246.527384,1.559735
Bus22,234.346980,-0.527287,231.168723,3.644760,247.249391,1.559410
Bus23,230.099657,-0.522056,226.591606,3.644018,246.448136,1.559771
Bus24,234.346980,-0.527287,231.168723,3.644760,247.249391,1.559410
Bus25,229.336091,-0.521094,225.768029,3.643881,246.303964,1.559836
Bus26,234.346980,-0.527287,231.168723,3.644760,247.249391,1.559410
Bus27,228.468987,-0.520161,225.770945,3.643826,246.313319,1.559871
Bus28,220.792200,-0.509566,215.338345,3.644128,244.166339,1.559382
Bus29,234.346980,-0.527287,231.168723,3.644760,247.249391,1.559410
Bus30,228.349609,-0.520033,225.771346,3.643819,246.314607,1.559876
Bus31,228.352622,-0.520036,225.771336,3.643819,246.314575,1.559876
Bus32,218.522870,-0.506346,212.561800,3.644198,243.597278,1.559260
Bus33,234.346980,-0.527287,231.168723,3.644760,247.249391,1.559410
Bus34,228.076241,-0.519737,225.772266,3.643802,246.317557,1.559887
Bus35,228.348681,-0.520032,225.771350,3.643819,246.314617,1.559876
Bus36,218.533119,-0.506307,211.653671,3.645251,243.599901,1.559207
Bus37,211.371642,-0.497385,205.043055,3.643453,241.794520,1.560487
Bus38,234.346980,-0.527287,231.168723,3.644760,247.249391,1.559410
Bus39,228.343015,-0.520025,225.771369,3.643818,246.314678,1.559876
Bus40,218.533477,-0.506306,211.621953,3.645288,243.599993,1.559205
Bus41,218.534736,-0.506301,211.510476,3.645418,243.600315,1.559198
Bus42,206.419727,-0.490802,199.825617,3.642904,240.543742,1.561349
Bus43,211.371642,-0.497385,205.043055,3.643453,241.794520,1.560487
Bus44,234.346980,-0.527287,231.168723,3.644760,247.249391,1.559410
Bus45,228.335749,-0.520018,225.771393,3.643818,246.314757,1.559876
Bus46,218.533639,-0.506305,211.607658,3.645305,243.600034,1.559204
Bus47,218.538625,-0.506286,211.165946,3.645821,243.601311,1.559178
Bus48,202.683965,-0.485614,195.883066,3.642469,239.598703,1.562006
Bus49,211.371642,-0.497385,205.043055,3.643453,241.794520,1.560487
Bus50,234.346980,-0.527287,231.168723,3.644760,247.249391,1.559410
Bus51,228.318052,-0.519998,225.771453,3.643817,246.314948,1.559877
Bus52,218.533810,-0.506304,211.592507,3.645322,243.600078,1.559203
Bus53,202.145803,-0.484851,195.314633,3.642405,239.462456,1.562101
Bus54,202.683965,-0.485614,195.883066,3.642469,239.598703,1.562006
Bus55,211.371642,-0.497385,205.043055,3.643453,241.794520,1.560487
Bus56,234.346980,-0.527287,231.168723,3.644760,247.249391,1.559410
Bus57,228.302901,-0.519982,225.771504,3.643816,246.315111,1.559878
Bus58,218.533973,-0.506304,211.578077,3.645339,243.600120,1.559202
Bus59,199.709569,-0.481339,192.739790,3.642109,238.845320,1.562534
Bus60,202.683965,-0.485614,195.883066,3.642469,239.598703,1.562006
Bus61,211.371642,-0.497385,205.043055,3.643453,241.794520,1.560487
Bus62,234.346980,-0.527287,231.168723,3.644760,247.249391,1.559410
Bus63,228.230273,-0.519904,225.771748,3.643811,246.315895,1.559881
Bus64,218.534070,-0.506303,211.569435,3.645349,243.600145,1.559202
Bus65,199.279700,-0.480689,192.208084,3.642195,238.699272,1.562535
Bus66,198.312668,-0.479614,192.745327,3.642007,238.859855,1.562594
Bus67,202.683965,-0.485614,195.883066,3.642469,239.598703,1.562006
Bus68,211.371642,-0.497385,205.043055,3.643453,241.794520,1.560487
Bus69,234.346980,-0.527287,231.168723,3.644760,247.249391,1.559410
Bus70,227.973567,-0.519626,225.772612,3.643795,246.318665,1.559891
Bus71,218.534261,-0.506303,211.552480,3.645369,243.600194,1.559201
Bus72,194.207513,-0.472787,185.926276,3.643243,236.973769,1.562541
Bus73,197.971360,-0.479189,192.746680,3.641982,238.863407,1.562609
Bus74,197.971360,-0.479189,192.746680,3.641982,238.863407,1.562609
Bus75,202.683965,-0.485614,195.883066,3.642469,239.598703,1.562006
Bus76,211.371642,-0.497385,205.043055,3.643453,241.794520,1.560487
Bus77,234.346980,-0.527287,231.168723,3.644760,247.249391,1.559410
Bus78,218.535231,-0.506299,211.466554,3.645469,243.600442,1.559196
Bus79,192.442430,-0.469935,183.736650,3.643626,236.372303,1.562543
Bus80,202.683965,-0.485614,195.883066,3.642469,239.598703,1.562006
Bus81,211.371642,-0.497385,205.043055,3.643453,241.794520,1.560487
Bus82,234.346980,-0.527287,231.168723,3.644760,247.249391,1.559410
Bus83,218.538886,-0.506285,211.142782,3.645848,243.601378,1.559176
Bus84,192.057441,-0.469306,183.258805,3.643710,236.241043,1.562544
Bus85,202.683965,-0.485614,195.883066,3.642469,239.598703,1.562006
Bus86,211.371642,-0.497385,205.043055,3.643453,241.794520,1.560487
Bus87,234.346980,-0.527287,231.168723,3.644760,247.249391,1.559410
Bus88,191.276980,-0.468022,182.289815,3.643883,235.974869,1.562545
Bus89,202.683965,-0.485614,195.883066,3.642469,239.598703,1.562006
Bus90,211.371642,-0.497385,205.043055,3.643453,241.794520,1.560487
Bus91,234.346980,-0.527287,231.168723,3.644760,247.249391,1.559410
Bus92,190.541261,-0.466801,181.376018,3.644048,235.723855,1.562546
Bus93,211.371642,-0.497385,205.043055,3.643453,241.794520,1.560487
Bus94,234.346980,-0.527287,231.168723,3.644760,247.249391,1.559410
Bus95,190.113764,-0.466087,180.844887,3.644145,235.577956,1.562546
Bus96,211.371642,-0.497385,205.043055,3.643453,241.794520,1.560487
Bus97,234.346980,-0.527287,231.168723,3.644760,247.249391,1.559410
Bus98,189.831487,-0.465614,180.494115,3.644209,235.481601,1.562546
Bus99,211.371642,-0.497385,205.043055,3.643453,241.794520,1.560487
Bus100,234.346980,-0.527287,231.168723,3.644760,247.249391,1.559410
Bus101,189.441813,-0.464958,180.009799,3.644298,235.348561,1.562547
Bus102,211.371642,-0.497385,205.043055,3.643453,241.794520,1.560487
Bus103,234.346980,-0.527287,231.168723,3.644760,247.249391,1.559410
Bus104,189.442528,-0.464956,179.999375,3.644293,235.344455,1.562527
Bus105,189.179520,-0.464567,179.742327,3.644266,235.281492,1.562610
Bus106,211.371642,-0.497385,205.043055,3.643453,241.794520,1.560487
Bus107,189.443394,-0.464953,179.986763,3.644288,235.339487,1.562503
Bus108,189.030800,-0.464345,179.590657,3.644249,235.243461,1.562646
Bus109,211.371642,-0.497385,205.043055,3.643453,241.794520,1.560487
Bus110,189.444398,-0.464950,179.972145,3.644282,235.333730,1.562475
Bus111,183.170417,-0.455280,173.606224,3.643520,233.743111,1.564072
Bus112,211.371642,-0.497385,205.043055,3.643453,241.794520,1.560487
Bus113,189.445928,-0.464946,179.949858,3.644272,235.324951,1.562433
Bus114,182.584193,-0.454340,173.006719,3.643444,233.592835,1.564216
Bus115,211.371642,-0.497385,205.043055,3.643453,241.794520,1.560487
Bus116,189.447896,-0.464939,179.921204,3.644260,235.313666,1.562378
Bus117,182.581334,-0.454356,172.982252,3.643433,233.575502,1.564168
Bus118,180.807456,-0.452352,171.370697,3.641835,233.294618,1.564493
Bus119,211.371642,-0.497385,205.043055,3.643453,241.794520,1.560487
Bus120,189.449309,-0.464935,179.900633,3.644251,235.305565,1.562339
Bus121,182.581334,-0.454356,172.982252,3.643433,233.575502,1.564168
Bus122,182.579942,-0.454363,172.970339,3.643428,233.567063,1.564144
Bus123,177.605200,-0.448666,168.421494,3.638855,232.756869,1.564993
Bus124,211.371642,-0.497385,205.043055,3.643453,241.794520,1.560487
Bus125,189.451304,-0.464929,179.871567,3.644239,235.294119,1.562284
Bus126,182.581334,-0.454356,172.982252,3.643433,233.575502,1.564168
Bus127,182.573404,-0.454398,172.914376,3.643402,233.527420,1.564033
Bus128,176.165954,-0.446965,167.095738,3.637480,232.515062,1.565218
Bus129,211.371642,-0.497385,205.043055,3.643453,241.794520,1.560487
Bus130,189.453464,-0.464922,179.840119,3.644225,235.281736,1.562224
Bus131,182.581334,-0.454356,172.982252,3.643433,233.575502,1.564168
Bus132,182.220382,-0.453923,172.915900,3.643374,233.531000,1.564049
Bus133,182.659503,-0.454448,172.740768,3.643575,233.385177,1.563575
Bus134,175.737838,-0.446453,166.701351,3.637067,232.443120,1.565285
Bus135,211.371642,-0.497385,205.043055,3.643453,241.794520,1.560487
Bus136,189.455500,-0.464916,179.810461,3.644212,235.270058,1.562168
Bus137,182.581334,-0.454356,172.982252,3.643433,233.575502,1.564168
Bus138,182.189982,-0.453882,172.916031,3.643371,233.531308,1.564051
Bus139,182.723556,-0.454486,172.611617,3.643703,233.279388,1.563233
Bus140,175.254635,-0.445873,166.256201,3.636598,232.361913,1.565361
Bus141,211.371642,-0.497385,205.043055,3.643453,241.794520,1.560487
Bus142,189.458849,-0.464905,179.761700,3.644192,235.250860,1.562075
Bus143,182.581334,-0.454356,172.982252,3.643433,233.575502,1.564168
Bus144,182.160154,-0.453842,172.916160,3.643369,233.531611,1.564052
Bus145,182.766450,-0.454511,172.525130,3.643789,233.208559,1.563004
Bus146,174.800246,-0.445324,165.837578,3.636155,232.285541,1.565433
Bus147,211.371642,-0.497385,205.043055,3.643453,241.794520,1.560487
Bus148,189.474770,-0.464856,179.529849,3.644092,235.159605,1.561633
Bus149,182.581334,-0.454356,172.982252,3.643433,233.575502,1.564168
Bus150,182.136069,-0.453809,172.916264,3.643367,233.531855,1.564053
Bus151,182.772299,-0.454699,172.549939,3.643932,233.126832,1.562974
Bus152,182.778334,-0.454462,171.512301,3.645224,233.211458,1.562942
Bus153,174.270128,-0.444680,165.349167,3.635635,232.196430,1.565516
Bus154,211.371642,-0.497385,205.043055,3.643453,241.794520,1.560487
Bus155,189.478238,-0.464845,179.479342,3.644070,235.139732,1.561537
Bus156,182.581334,-0.454356,172.982252,3.643433,233.575502,1.564168
Bus157,182.099920,-0.453760,172.916420,3.643364,233.532222,1.564055
Bus158,182.787842,-0.455199,172.615752,3.644311,232.910088,1.562894
Bus159,182.779057,-0.454459,171.450665,3.645312,233.211634,1.562938
Bus160,174.117602,-0.444494,165.208638,3.635485,232.170789,1.565540
Bus161,211.371642,-0.497385,205.043055,3.643453,241.794520,1.560487
Bus162,189.491135,-0.464793,178.373058,3.645587,235.142902,1.561469
Bus163,189.465411,-0.464917,179.366896,3.644026,235.056805,1.561311
Bus164,182.581334,-0.454356,172.982252,3.643433,233.575502,1.564168
Bus165,182.056339,-0.453702,172.916609,3.643360,233.532664,1.564057
Bus166,182.793252,-0.455373,172.638618,3.644442,232.834801,1.562866
Bus167,182.779718,-0.454456,171.394359,3.645392,233.211795,1.562935
Bus168,173.251196,-0.443431,164.410338,3.634626,232.025122,1.565677
Bus169,211.371642,-0.497385,205.043055,3.643453,241.794520,1.560487
Bus170,189.493571,-0.464784,178.164108,3.645876,235.143501,1.561456
Bus171,189.448383,-0.465013,179.217613,3.643967,234.946729,1.561012
Bus172,182.581334,-0.454356,172.982252,3.643433,233.575502,1.564168
Bus173,182.023415,-0.453657,172.916751,3.643358,233.532998,1.564058
Bus174,182.793252,-0.455373,172.638618,3.644442,232.834801,1.562866
Bus175,182.794428,-0.455422,172.645195,3.644477,232.225094,1.563510
Bus176,182.779992,-0.454455,171.370969,3.645425,233.211862,1.562933
Bus177,172.761932,-0.442826,163.959508,3.634138,231.942851,1.565754
Bus178,189.498598,-0.464763,177.733051,3.646474,235.144737,1.561430
Bus179,189.443492,-0.464970,179.184303,3.643912,234.955039,1.560972
Bus180,189.449098,-0.465040,179.221379,3.643986,234.597909,1.561376
Bus181,182.581334,-0.454356,172.982252,3.643433,233.575502,1.564168
Bus182,181.985317,-0.453606,172.916915,3.643355,233.533384,1.564060
Bus183,182.793252,-0.455373,172.638618,3.644442,232.834801,1.562866
Bus184,182.794555,-0.455427,172.645905,3.644481,232.159251,1.563579
Bus185,182.780584,-0.454453,171.320553,3.645497,233.212006,1.562930
Bus186,172.398779,-0.442374,163.624870,3.633774,231.881779,1.565811
Bus187,189.424245,-0.464798,179.053224,3.643695,234.987743,1.560812
Bus188,189.452057,-0.465151,179.236964,3.644066,233.154550,1.562892
Bus189,182.581334,-0.454356,172.982252,3.643433,233.575502,1.564168
Bus190,181.949495,-0.453557,172.917070,3.643352,233.533747,1.564062
Bus191,182.793252,-0.455373,172.638618,3.644442,232.834801,1.562866
Bus192,182.793252,-0.455373,172.638618,3.644442,232.834801,1.562866
Bus193,182.794678,-0.455432,172.646592,3.644485,232.095564,1.563647
Bus194,182.782091,-0.454446,171.192146,3.645681,233.212374,1.562922
Bus195,172.072318,-0.441967,163.324033,3.633445,231.826874,1.565863
Bus196,189.389895,-0.464492,178.819209,3.643307,235.046150,1.560528
Bus197,189.452346,-0.465161,179.238487,3.644074,233.013560,1.563041
Bus198,189.452224,-0.465157,179.237845,3.644071,233.073028,1.562978
Bus199,182.581334,-0.454356,172.982252,3.643433,233.575502,1.564168
Bus200,181.910953,-0.453505,172.917237,3.643349,233.534138,1.564063
...
SourceBus_1,6588.858791,-0.021480,6585.181785,4.176075,6636.956606,2.077776
LOAD1,228.076241,-0.519737,225.772266,3.643802,246.317557,1.559887
LOAD2,218.538625,-0.506286,211.165946,3.645821,243.601311,1.559178
LOAD3,227.973567,-0.519626,225.772612,3.643795,246.318665,1.559891
LOAD4,197.971360,-0.479189,192.746680,3.641982,238.863407,1.562609
LOAD5,197.971360,-0.479189,192.746680,3.641982,238.863407,1.562609
LOAD6,218.538886,-0.506285,211.142782,3.645848,243.601378,1.559176
LOAD7,189.498598,-0.464763,177.733051,3.646474,235.144737,1.561430
LOAD8,189.453077,-0.465189,179.242337,3.644094,232.657127,1.563419
LOAD9,187.743735,-0.462345,178.826097,3.643178,235.062955,1.560602
LOAD10,189.499367,-0.464027,175.491322,3.647493,235.077343,1.559945
LOAD11,189.499367,-0.464027,175.491322,3.647493,235.077343,1.559945
LOAD12,189.453274,-0.465196,179.243369,3.644099,232.561581,1.563521
LOAD13,182.800330,-0.454372,169.638483,3.647924,233.216826,1.562826
LOAD14,181.248153,-0.452605,172.920100,3.643295,233.540862,1.564093
LOAD15,182.797912,-0.454382,169.844573,3.647625,233.216233,1.562839
LOAD16,182.797162,-0.455534,172.660467,3.644559,230.809709,1.565016
LOAD17,182.796628,-0.455512,172.657497,3.644543,231.085021,1.564722
LOAD18,157.866350,-0.416978,151.825525,3.615632,230.877333,1.570779
LOAD19,167.114667,-0.435617,158.571760,3.628658,229.816574,1.567584
LOAD20,158.956083,-0.421318,154.441977,3.619547,231.351246,1.569001
LOAD21,167.452353,-0.435805,160.411276,3.630064,231.308378,1.566432
LOAD22,158.603703,-0.420772,154.443776,3.619516,231.354715,1.569018
LOAD23,155.836451,-0.410787,148.290478,3.615071,232.451405,1.569899
LOAD24,163.713042,-0.430069,153.861264,3.627014,228.165196,1.566703
LOAD25,136.476530,-0.361806,140.765477,3.580160,236.791279,1.577930
LOAD26,158.082387,-0.411606,140.604719,3.626190,228.526208,1.556646
LOAD27,162.493174,-0.427265,151.363340,3.627238,227.097038,1.565635
LOAD28,162.493655,-0.427293,151.366646,3.627259,226.785190,1.565974
LOAD29,135.258485,-0.352583,137.088168,3.580644,237.058028,1.574589
LOAD30,136.615913,-0.362056,140.764580,3.580173,236.789985,1.577924
LOAD31,135.293151,-0.352645,137.087941,3.580648,237.057711,1.574587
LOAD32,156.528761,-0.408138,139.739612,3.622319,227.271603,1.557141
LOAD33,140.447308,-0.355540,133.078045,3.590572,235.217983,1.568405
LOAD34,141.210813,-0.375373,143.379626,3.586650,235.878711,1.577105
LOAD35,140.822853,-0.353842,129.875537,3.596300,236.343543,1.565500
LOAD36,140.223954,-0.354972,129.378578,3.596204,236.614430,1.567966
LOAD37,140.225095,-0.354968,129.290254,3.596371,236.614612,1.567960
LOAD38,154.655874,-0.403016,135.614058,3.622240,228.327848,1.555232
LOAD39,153.261132,-0.399008,134.476639,3.618673,226.194271,1.555317
LOAD40,152.435489,-0.393386,129.804381,3.621054,228.091599,1.550746
LOAD41,150.685100,-0.376128,118.734418,3.631084,228.005029,1.541762
LOAD42,153.261198,-0.399014,134.477349,3.618678,226.127460,1.555390
LOAD43,149.245182,-0.371971,120.209557,3.624630,225.149036,1.543389
LOAD44,157.540435,-0.410045,139.054104,3.626780,228.452578,1.556149
LOAD45,150.683285,-0.376135,118.879497,3.630785,228.004601,1.541771
LOAD46,147.738569,-0.391786,136.778428,3.617447,228.375840,1.555734
LOAD47,149.245138,-0.371960,120.208373,3.624621,225.258604,1.543269
LOAD48,148.008000,-0.392235,136.776940,3.617474,228.373312,1.555721
LOAD49,147.474509,-0.391346,136.779890,3.617421,228.378314,1.555747
LOAD50,148.860687,-0.354900,108.500706,3.637185,228.927507,1.531739
LOAD51,147.425530,-0.380009,128.408939,3.615749,228.354229,1.549049
LOAD52,144.260457,-0.354609,116.433495,3.620916,228.595379,1.537896
LOAD53,148.860687,-0.354900,108.192542,3.637902,228.927507,1.531739
LOAD54,146.689217,-0.378779,128.413155,3.615671,228.360970,1.549086
LOAD55,144.185954,-0.354264,116.454596,3.620510,228.626281,1.538078
